Version 4
SHEET 1 880 728
WIRE 144 0 -112 0
WIRE -112 48 -112 0
WIRE 144 48 144 0
WIRE 304 48 240 48
WIRE -112 144 -112 128
WIRE 144 144 144 128
WIRE 304 144 304 128
WIRE 144 240 144 224
WIRE 304 240 304 224
WIRE 144 336 144 320
WIRE 304 336 304 320
WIRE 144 432 144 416
WIRE 304 432 304 416
WIRE 240 512 240 48
WIRE 240 512 144 512
WIRE 304 544 304 512
WIRE 464 544 304 544
WIRE 304 576 304 544
WIRE 304 688 304 656
FLAG -112 144 0
FLAG 304 688 0
SYMBOL res 128 32 R0
SYMATTR InstName R1
SYMATTR Value 1Meg
SYMBOL res 128 128 R0
SYMATTR InstName R2
SYMATTR Value 1Meg
SYMBOL res 128 224 R0
SYMATTR InstName R3
SYMATTR Value 1Meg
SYMBOL res 128 320 R0
SYMATTR InstName R4
SYMATTR Value 1Meg
SYMBOL res 128 416 R0
SYMATTR InstName R5
SYMATTR Value 1Meg
SYMBOL res 288 32 R0
SYMATTR InstName R6
SYMATTR Value 1Meg
SYMBOL res 288 128 R0
SYMATTR InstName R7
SYMATTR Value 1Meg
SYMBOL res 288 224 R0
SYMATTR InstName R8
SYMATTR Value 1Meg
SYMBOL res 288 320 R0
SYMATTR InstName R9
SYMATTR Value 1Meg
SYMBOL res 288 416 R0
SYMATTR InstName R10
SYMATTR Value 1Meg
SYMBOL voltage -112 32 R0
WINDOW 123 0 0 Left 2
WINDOW 39 0 0 Left 2
SYMATTR InstName V1
SYMATTR Value 600
SYMBOL res 288 560 R0
SYMATTR InstName R11
SYMATTR Value 33k
TEXT -146 712 Left 2 !.dc dec V1 1 600 100
