Version 4
SHEET 1 1252 680
WIRE 64 -192 -32 -192
WIRE 256 -192 256 -208
WIRE 256 -192 64 -192
WIRE 256 -176 256 -192
WIRE -32 -160 -32 -192
WIRE 64 -160 64 -192
WIRE 192 -128 160 -128
WIRE 672 -96 672 -128
WIRE 896 -96 672 -96
WIRE 1104 -96 896 -96
WIRE 672 -80 672 -96
WIRE 896 -80 896 -96
WIRE 1104 -80 1104 -96
WIRE 64 -48 64 -80
WIRE 160 -48 160 -128
WIRE 160 -48 64 -48
WIRE 256 -48 256 -80
WIRE 496 -48 256 -48
WIRE 64 -16 64 -48
WIRE 256 -16 256 -48
WIRE 496 0 496 -48
WIRE 544 0 496 0
WIRE -176 32 -256 32
WIRE -144 32 -176 32
WIRE -32 32 -32 -80
WIRE -32 32 -64 32
WIRE 0 32 -32 32
WIRE 160 32 160 -48
WIRE 192 32 160 32
WIRE 672 48 672 16
WIRE 896 48 896 16
WIRE 896 48 672 48
WIRE 1104 48 1104 16
WIRE 1104 48 896 48
WIRE 64 96 64 80
WIRE 256 96 256 80
WIRE 256 96 64 96
WIRE 896 96 896 48
WIRE -176 112 -176 32
WIRE -144 112 -176 112
WIRE -64 112 -64 32
WIRE -64 112 -80 112
WIRE 256 112 256 96
WIRE 544 144 544 0
WIRE 768 144 768 0
WIRE 768 144 544 144
WIRE 976 144 976 0
WIRE 976 144 768 144
FLAG 256 112 0
FLAG 256 -208 12V
IOPIN 256 -208 In
FLAG 672 -208 12V
IOPIN 672 -208 In
FLAG -256 112 0
FLAG -48 400 0
FLAG -48 320 12V
IOPIN -48 320 In
FLAG 896 96 0
SYMBOL npn 192 -176 R0
SYMATTR InstName Q1
SYMATTR Value BC817-25
SYMBOL npn 0 -16 R0
SYMATTR InstName Q2
SYMATTR Value BC817-25
SYMBOL pnp 192 80 M180
SYMATTR InstName Q3
SYMATTR Value BC807-25
SYMBOL res 48 -176 R0
SYMATTR InstName R2
SYMATTR Value 1k
SYMBOL res -48 16 R90
WINDOW 0 0 56 VBottom 2
WINDOW 3 32 56 VTop 2
SYMATTR InstName R4
SYMATTR Value 1k
SYMBOL cap -80 96 R90
WINDOW 0 0 32 VBottom 2
WINDOW 3 32 32 VTop 2
SYMATTR InstName C1
SYMATTR Value 500p
SYMBOL res 656 -224 R0
SYMATTR InstName R5
SYMATTR Value 0.25
SYMBOL voltage -48 304 R0
WINDOW 123 0 0 Left 0
WINDOW 39 0 0 Left 0
SYMATTR InstName V1
SYMATTR Value 12
SYMBOL voltage -256 16 R0
WINDOW 123 0 0 Left 0
WINDOW 39 0 0 Left 0
SYMATTR InstName V2
SYMATTR Value PULSE(0 5 0 10n 10n 1u 2u)
SYMBOL res -48 -176 R0
SYMATTR InstName R3
SYMATTR Value 100k
SYMBOL nmos 624 -80 R0
SYMATTR InstName M1
SYMATTR Value Si7224DN_2
SYMBOL nmos 848 -80 R0
SYMATTR InstName M2
SYMATTR Value Si7224DN_2
SYMBOL nmos 1056 -80 R0
SYMATTR InstName M3
SYMATTR Value Si7224DN_2
SYMBOL ind 640 -16 R90
WINDOW 0 5 56 VBottom 2
WINDOW 3 32 56 VTop 2
SYMATTR InstName L1
SYMATTR Value 100n
SYMATTR SpiceLine Rser=50 Cpar=10p
SYMBOL ind 864 -16 R90
WINDOW 0 5 56 VBottom 2
WINDOW 3 32 56 VTop 2
SYMATTR InstName L2
SYMATTR Value 1.2n
SYMATTR SpiceLine Rser=50 Cpar=100p
SYMBOL ind 1072 -16 R90
WINDOW 0 5 56 VBottom 2
WINDOW 3 32 56 VTop 2
SYMATTR InstName L3
SYMATTR Value 0.5n
SYMATTR SpiceLine Rser=50 Cpar=5p
TEXT -290 424 Left 2 !.tran 0 1.007m 1.005m startup uic
