Version 4
SHEET 1 1116 1040
WIRE 512 -128 -1344 -128
WIRE 768 -64 352 -64
WIRE 848 -64 768 -64
WIRE 960 -64 928 -64
WIRE -528 -16 -1024 -16
WIRE -1088 16 -1152 16
WIRE -784 48 -816 48
WIRE -656 48 -704 48
WIRE -192 48 -304 48
WIRE 352 112 352 -64
WIRE -528 144 -528 -16
WIRE -496 144 -528 144
WIRE -384 144 -384 48
WIRE -384 144 -416 144
WIRE -1344 160 -1344 -128
WIRE -1328 160 -1344 160
WIRE -1232 160 -1232 16
WIRE -1232 160 -1248 160
WIRE -1216 160 -1232 160
WIRE -1088 176 -1088 16
WIRE -1088 176 -1152 176
WIRE -1024 176 -1024 -16
WIRE -1024 176 -1088 176
WIRE -816 176 -816 48
WIRE -816 176 -992 176
WIRE -768 176 -816 176
WIRE -384 176 -384 144
WIRE -368 176 -384 176
WIRE -1216 192 -1248 192
WIRE -656 192 -656 48
WIRE -656 192 -704 192
WIRE -608 192 -656 192
WIRE -192 192 -192 48
WIRE -192 192 -304 192
WIRE 192 192 -192 192
WIRE 304 192 272 192
WIRE -768 208 -816 208
WIRE -368 208 -384 208
WIRE 960 224 960 -64
WIRE -1328 240 -1344 240
WIRE -1248 240 -1248 192
WIRE -608 240 -608 192
WIRE -496 240 -608 240
WIRE -384 240 -384 208
WIRE -384 240 -416 240
WIRE -816 256 -816 208
WIRE -992 272 -992 176
WIRE -1248 288 -1248 240
WIRE -384 304 -384 240
WIRE 352 352 352 208
WIRE 400 352 352 352
WIRE 512 352 512 -128
WIRE 512 352 400 352
WIRE -816 368 -816 256
WIRE 352 384 352 352
WIRE -816 464 -816 448
WIRE -1344 480 -1344 240
WIRE 352 480 352 464
WIRE 352 480 -1344 480
WIRE 352 512 352 480
WIRE 768 512 352 512
WIRE 848 512 768 512
WIRE 960 512 960 304
WIRE 960 512 928 512
WIRE 352 528 352 512
WIRE 32 800 32 768
WIRE 128 800 128 768
FLAG 32 688 -15
IOPIN 32 688 Out
FLAG 128 688 +15
IOPIN 128 688 Out
FLAG -736 160 +15
IOPIN -736 160 In
FLAG -736 224 -15
IOPIN -736 224 In
FLAG -1184 144 +15
IOPIN -1184 144 In
FLAG -1184 208 -15
IOPIN -1184 208 In
FLAG 400 352 s
FLAG -336 160 +15
IOPIN -336 160 In
FLAG -336 224 -15
IOPIN -336 224 In
FLAG 192 192 g
FLAG -816 256 vin
FLAG -1248 368 0
FLAG -992 352 0
FLAG -816 464 0
FLAG -384 384 0
FLAG 128 880 0
FLAG 32 880 0
FLAG 352 608 0
FLAG 768 -64 DUT+
FLAG 768 512 DUT-
FLAG 960 -64 V+
FLAG 960 512 V-
SYMBOL nmos 304 112 R0
SYMATTR InstName M1
SYMATTR Value IXFX90N30
SYMBOL res 288 176 R90
WINDOW 0 0 56 VBottom 2
WINDOW 3 32 56 VTop 2
SYMATTR InstName R1
SYMATTR Value 100
SYMBOL Opamps\\LT1014 -736 128 R0
SYMATTR InstName U1
SYMBOL voltage 32 784 R0
WINDOW 123 0 0 Left 0
WINDOW 39 0 0 Left 0
SYMATTR InstName V1
SYMATTR Value -15
SYMBOL voltage 128 784 R0
WINDOW 123 0 0 Left 0
WINDOW 39 0 0 Left 0
SYMATTR InstName V2
SYMATTR Value 15
SYMBOL res 336 368 R0
SYMATTR InstName R2
SYMATTR Value 2
SYMBOL Opamps\\LT1014 -1184 112 R0
SYMATTR InstName U2
SYMBOL voltage -816 352 R0
WINDOW 123 0 0 Left 0
WINDOW 39 0 0 Left 0
SYMATTR InstName V4
SYMATTR Value PULSE(0 5 10m 10m 10m 1m 40m)
SYMBOL res -688 32 R90
WINDOW 0 0 56 VBottom 2
WINDOW 3 32 56 VTop 2
SYMATTR InstName R4
SYMATTR Value 10k
SYMBOL res -1008 256 R0
SYMATTR InstName R5
SYMATTR Value 10k
SYMBOL res -1232 144 R90
WINDOW 0 0 56 VBottom 2
WINDOW 3 32 56 VTop 2
SYMATTR InstName R6
SYMATTR Value 10k
SYMBOL res -1232 224 R90
WINDOW 0 0 56 VBottom 2
WINDOW 3 32 56 VTop 2
SYMATTR InstName R8
SYMATTR Value 10k
SYMBOL res -1136 0 R90
WINDOW 0 0 56 VBottom 2
WINDOW 3 32 56 VTop 2
SYMATTR InstName R9
SYMATTR Value 10k
SYMBOL res -1264 272 R0
SYMATTR InstName R10
SYMATTR Value 10k
SYMBOL Opamps\\LT1014 -336 128 R0
SYMATTR InstName U3
SYMBOL res -288 32 R90
WINDOW 0 0 56 VBottom 2
WINDOW 3 32 56 VTop 2
SYMATTR InstName R7
SYMATTR Value 10k
SYMBOL res -400 128 R90
WINDOW 0 0 56 VBottom 2
WINDOW 3 32 56 VTop 2
SYMATTR InstName R11
SYMATTR Value 10k
SYMBOL res -400 224 R90
WINDOW 0 0 56 VBottom 2
WINDOW 3 32 56 VTop 2
SYMATTR InstName R12
SYMATTR Value 10k
SYMBOL res -400 288 R0
SYMATTR InstName R13
SYMATTR Value 10k
SYMBOL bv 128 672 R0
SYMATTR InstName B1
SYMATTR Value V=(white(2e6*time)/1)
SYMBOL bv 32 672 R0
SYMATTR InstName B2
SYMATTR Value V=(white(2e6*time)/1)
SYMBOL voltage 960 208 R0
WINDOW 123 0 0 Left 0
WINDOW 39 24 124 Left 2
SYMATTR SpiceLine Rser={rdut}
SYMATTR InstName V3
SYMATTR Value {vdut}
SYMBOL ind 832 -48 R270
WINDOW 0 32 56 VTop 2
WINDOW 3 5 56 VBottom 2
SYMATTR InstName L1
SYMATTR Value {ldut}
SYMATTR SpiceLine Rser=10m
SYMBOL ind 832 528 R270
WINDOW 0 32 56 VTop 2
WINDOW 3 5 56 VBottom 2
SYMATTR InstName L2
SYMATTR Value {ldut}
SYMATTR SpiceLine Rser=10m
SYMBOL res 336 512 R0
SYMATTR InstName R15
SYMATTR Value 1n
TEXT -632 720 Left 2 !.param W=250
TEXT -632 752 Left 2 !.param vdut=500
TEXT -632 784 Left 2 !.param rdut=10k
TEXT -632 816 Left 2 !.param ldut=100n
TEXT -632 848 Left 2 !.meas TRAN dv MAX abs(d(V(dut+)-V(s)))
TEXT -632 880 Left 2 !.meas TRAN di MAX abs(d(Id(M1)))
TEXT -632 912 Left 2 !.meas TRAN vmax MAX abs(v(dut+))
TEXT -992 1024 Left 2 !.tran 0 100m 0 startup uic
