Version 4
SHEET 1 1116 1040
WIRE 512 -128 -992 -128
WIRE 608 -64 352 -64
WIRE 768 -64 608 -64
WIRE 848 -64 768 -64
WIRE 960 -64 928 -64
WIRE 608 -32 608 -64
WIRE -176 -16 -672 -16
WIRE -736 16 -800 16
WIRE -432 48 -464 48
WIRE -304 48 -352 48
WIRE 160 48 48 48
WIRE 608 64 608 32
WIRE 608 64 560 64
WIRE 656 64 608 64
WIRE 560 80 560 64
WIRE 656 80 656 64
WIRE 352 112 352 -64
WIRE -176 144 -176 -16
WIRE -144 144 -176 144
WIRE -32 144 -32 48
WIRE -32 144 -64 144
WIRE -992 160 -992 -128
WIRE -976 160 -992 160
WIRE -880 160 -880 16
WIRE -880 160 -896 160
WIRE -864 160 -880 160
WIRE -736 176 -736 16
WIRE -736 176 -800 176
WIRE -672 176 -672 -16
WIRE -672 176 -736 176
WIRE -560 176 -640 176
WIRE -464 176 -464 48
WIRE -464 176 -560 176
WIRE -416 176 -464 176
WIRE -32 176 -32 144
WIRE -16 176 -32 176
WIRE 560 176 560 160
WIRE 608 176 560 176
WIRE 656 176 656 144
WIRE 656 176 608 176
WIRE -864 192 -896 192
WIRE -304 192 -304 48
WIRE -304 192 -352 192
WIRE -256 192 -304 192
WIRE 160 192 160 48
WIRE 160 192 48 192
WIRE 192 192 160 192
WIRE 304 192 272 192
WIRE -416 208 -464 208
WIRE -16 208 -32 208
WIRE 960 224 960 -64
WIRE -976 240 -992 240
WIRE -896 240 -896 192
WIRE -256 240 -256 192
WIRE -144 240 -256 240
WIRE -32 240 -32 208
WIRE -32 240 -64 240
WIRE -464 256 -464 208
WIRE -640 272 -640 176
WIRE -560 272 -560 176
WIRE -896 288 -896 240
WIRE -32 304 -32 240
WIRE 352 352 352 208
WIRE 400 352 352 352
WIRE 512 352 512 -128
WIRE 512 352 400 352
WIRE -464 368 -464 256
WIRE -560 384 -560 352
WIRE 352 384 352 352
WIRE -464 464 -464 448
WIRE -992 480 -992 240
WIRE 352 480 352 464
WIRE 352 480 -992 480
WIRE 352 512 352 480
WIRE 608 512 608 176
WIRE 608 512 352 512
WIRE 768 512 608 512
WIRE 848 512 768 512
WIRE 960 512 960 304
WIRE 960 512 928 512
WIRE 352 528 352 512
WIRE 32 800 32 768
WIRE 128 800 128 768
FLAG 32 688 -15
IOPIN 32 688 Out
FLAG 128 688 +15
IOPIN 128 688 Out
FLAG -384 160 +15
IOPIN -384 160 In
FLAG -384 224 -15
IOPIN -384 224 In
FLAG -832 144 +15
IOPIN -832 144 In
FLAG -832 208 -15
IOPIN -832 208 In
FLAG 400 352 s
FLAG 16 160 +15
IOPIN 16 160 In
FLAG 16 224 -15
IOPIN 16 224 In
FLAG 192 192 g
FLAG -464 256 vin
FLAG -896 368 0
FLAG -640 352 0
FLAG -560 464 0
FLAG -464 464 0
FLAG -32 384 0
FLAG 128 880 0
FLAG 32 880 0
FLAG 352 608 0
FLAG 768 -64 DUT+
FLAG 768 512 DUT-
FLAG 960 -64 V+
FLAG 960 512 V-
SYMBOL nmos 304 112 R0
SYMATTR InstName M1
SYMATTR Value IXTK102N65
SYMBOL res 288 176 R90
WINDOW 0 0 56 VBottom 2
WINDOW 3 32 56 VTop 2
SYMATTR InstName R1
SYMATTR Value 100
SYMBOL Opamps\\LT1014 -384 128 R0
SYMATTR InstName U1
SYMBOL voltage 32 784 R0
WINDOW 123 0 0 Left 0
WINDOW 39 0 0 Left 0
SYMATTR InstName V1
SYMATTR Value -15
SYMBOL voltage 128 784 R0
WINDOW 123 0 0 Left 0
WINDOW 39 0 0 Left 0
SYMATTR InstName V2
SYMATTR Value 15
SYMBOL res 336 368 R0
SYMATTR InstName R2
SYMATTR Value 2
SYMBOL Opamps\\LT1014 -832 112 R0
SYMATTR InstName U2
SYMBOL voltage -464 352 R0
WINDOW 123 0 0 Left 0
WINDOW 39 0 0 Left 0
SYMATTR InstName V4
SYMATTR Value PULSE(0 5 10m 10m 10m 1m 40m)
SYMBOL voltage -560 368 R0
WINDOW 123 0 0 Left 0
WINDOW 39 0 0 Left 0
SYMATTR InstName V5
SYMATTR Value 5
SYMBOL res -576 256 R0
SYMATTR InstName R3
SYMATTR Value 100k
SYMBOL res -336 32 R90
WINDOW 0 0 56 VBottom 2
WINDOW 3 32 56 VTop 2
SYMATTR InstName R4
SYMATTR Value 5k
SYMBOL res -656 256 R0
SYMATTR InstName R5
SYMATTR Value 5k
SYMBOL res -880 144 R90
WINDOW 0 0 56 VBottom 2
WINDOW 3 32 56 VTop 2
SYMATTR InstName R6
SYMATTR Value 10k
SYMBOL res -880 224 R90
WINDOW 0 0 56 VBottom 2
WINDOW 3 32 56 VTop 2
SYMATTR InstName R8
SYMATTR Value 10k
SYMBOL res -784 0 R90
WINDOW 0 0 56 VBottom 2
WINDOW 3 32 56 VTop 2
SYMATTR InstName R9
SYMATTR Value 10k
SYMBOL res -912 272 R0
SYMATTR InstName R10
SYMATTR Value 10k
SYMBOL Opamps\\LT1014 16 128 R0
SYMATTR InstName U3
SYMBOL res 64 32 R90
WINDOW 0 0 56 VBottom 2
WINDOW 3 32 56 VTop 2
SYMATTR InstName R7
SYMATTR Value 10k
SYMBOL res -48 128 R90
WINDOW 0 0 56 VBottom 2
WINDOW 3 32 56 VTop 2
SYMATTR InstName R11
SYMATTR Value 10k
SYMBOL res -48 224 R90
WINDOW 0 0 56 VBottom 2
WINDOW 3 32 56 VTop 2
SYMATTR InstName R12
SYMATTR Value 10k
SYMBOL res -48 288 R0
SYMATTR InstName R13
SYMATTR Value 10k
SYMBOL bv 128 672 R0
SYMATTR InstName B1
SYMATTR Value V=(white(2e6*time)/1)
SYMBOL bv 32 672 R0
SYMATTR InstName B2
SYMATTR Value V=(white(2e6*time)/1)
SYMBOL voltage 960 208 R0
WINDOW 123 0 0 Left 0
WINDOW 39 24 124 Left 2
SYMATTR SpiceLine Rser={rdut}
SYMATTR InstName V3
SYMATTR Value {vdut}
SYMBOL ind 832 -48 R270
WINDOW 0 32 56 VTop 2
WINDOW 3 5 56 VBottom 2
SYMATTR InstName L1
SYMATTR Value {ldut}
SYMATTR SpiceLine Rser=10m
SYMBOL ind 832 528 R270
WINDOW 0 32 56 VTop 2
WINDOW 3 5 56 VBottom 2
SYMATTR InstName L2
SYMATTR Value {ldut}
SYMATTR SpiceLine Rser=10m
SYMBOL res 336 512 R0
SYMATTR InstName R15
SYMATTR Value 1n
SYMBOL schottky 592 -32 R0
SYMATTR InstName D1
SYMATTR Value 1N5817
SYMATTR Description Diode
SYMATTR Type diode
SYMBOL res 544 64 R0
SYMATTR InstName R14
SYMATTR Value 100
SYMBOL cap 640 80 R0
SYMATTR InstName C1
SYMATTR Value 1µ
TEXT -632 720 Left 2 !.param W=250
TEXT -632 752 Left 2 !.param vdut=500
TEXT -632 784 Left 2 !.param rdut=10k
TEXT -632 816 Left 2 !.param ldut=100n
TEXT -632 1000 Left 2 !.lib "D:\\projects\\Electronic-Load\\SIMULATION\\LTSpice\\SPICE Models\\IXTK102N65.lib"
TEXT -632 848 Left 2 !.meas TRAN dv MAX abs(d(V(dut+)-V(s)))
TEXT -632 880 Left 2 !.meas TRAN di MAX abs(d(Id(M1)))
TEXT -632 912 Left 2 !.meas TRAN vmax MAX abs(v(dut+))
TEXT -992 1024 Left 2 !.tran 0 100m 0 startup uic
