Version 4
SHEET 1 880 680
WIRE -144 128 -176 128
WIRE -32 128 -64 128
WIRE -480 192 -528 192
WIRE -400 192 -432 192
WIRE -288 192 -320 192
WIRE -176 192 -176 128
WIRE -176 192 -208 192
WIRE -176 224 -176 192
WIRE -144 224 -176 224
WIRE -32 240 -32 128
WIRE -32 240 -80 240
WIRE -144 256 -176 256
WIRE -480 288 -480 192
WIRE -288 288 -480 288
WIRE -176 288 -176 256
WIRE -176 288 -208 288
WIRE -528 320 -528 272
WIRE -432 320 -432 192
WIRE -432 320 -528 320
WIRE -176 320 -176 288
WIRE 32 320 32 288
WIRE -528 352 -528 320
WIRE -176 416 -176 400
WIRE -96 416 -176 416
WIRE 32 416 32 400
WIRE 32 416 -16 416
WIRE -176 432 -176 416
WIRE 32 432 32 416
WIRE 32 528 32 512
WIRE -176 544 -176 512
FLAG -768 192 V+
FLAG -672 192 V-
FLAG -768 272 0
FLAG -672 272 0
FLAG -112 208 V+
FLAG -176 544 0
FLAG -528 352 0
FLAG -528 112 0
FLAG -112 272 V-
FLAG 32 288 V+
FLAG 32 528 V-
SYMBOL voltage -768 176 R0
WINDOW 123 0 0 Left 2
WINDOW 39 0 0 Left 2
SYMATTR InstName V1
SYMATTR Value 5
SYMBOL voltage -672 176 R0
WINDOW 123 0 0 Left 2
WINDOW 39 0 0 Left 2
SYMATTR InstName V2
SYMATTR Value -5
SYMBOL res -192 176 R90
WINDOW 0 0 56 VBottom 2
WINDOW 3 32 56 VTop 2
SYMATTR InstName R1
SYMATTR Value 4k99
SYMBOL res -192 272 R90
WINDOW 0 0 56 VBottom 2
WINDOW 3 32 56 VTop 2
SYMATTR InstName R2
SYMATTR Value 4k99
SYMBOL res -48 112 R90
WINDOW 0 0 56 VBottom 2
WINDOW 3 32 56 VTop 2
SYMATTR InstName R3
SYMATTR Value 200k
SYMBOL res -192 304 R0
SYMATTR InstName R4
SYMATTR Value 200k
SYMBOL res -544 176 R0
SYMATTR InstName R9
SYMATTR Value 2m
SYMBOL current -528 112 R0
WINDOW 123 0 0 Left 2
WINDOW 39 0 0 Left 2
SYMATTR InstName I1
SYMATTR Value 50
SYMBOL Opamps\\LT1014 -112 176 R0
SYMATTR InstName U2
SYMBOL voltage -304 192 R90
WINDOW 123 0 0 Left 2
WINDOW 39 0 0 Left 2
SYMATTR InstName V3
SYMATTR Value 1m2
SYMBOL res -192 416 R0
SYMATTR InstName R5
SYMATTR Value 200
SYMBOL res 0 400 R90
WINDOW 0 0 56 VBottom 2
WINDOW 3 32 56 VTop 2
SYMATTR InstName R6
SYMATTR Value 20k
SYMBOL res 48 416 R180
WINDOW 0 36 76 Left 2
WINDOW 3 36 40 Left 2
SYMATTR InstName R7
SYMATTR Value {rt}
SYMBOL res 48 528 R180
WINDOW 0 36 76 Left 2
WINDOW 3 36 40 Left 2
SYMATTR InstName R8
SYMATTR Value {rb}
TEXT 224 400 Left 2 !.param rt = 20k * trim
TEXT 224 432 Left 2 !.param rb = 20k * (1-trim)
TEXT 224 464 Left 2 !.param trim 0.154
TEXT -802 600 Left 2 !;dc oct I1 50m 50 100
TEXT 224 496 Left 2 !.step param trim 0.01 0.99 0.01
TEXT -804 620 Left 2 !.op
